Circuit: * C:\Users\Matt\Dropbox\Documents\GitHub\12V-24V-Boost-Converter\LTSpice\Boost_test1.asc

Direct Newton iteration for .op point succeeded.

Date: Wed Mar 20 11:20:25 2019
Total elapsed time: 3.666 seconds.

tnom = 27
temp = 27
method = modified trap
totiter = 734888
traniter = 734842
tranpoints = 190326
accept = 150326
rejected = 40000
matrix size = 21
fillins = 3
solver = Normal
Matrix Compiler1: 1.63 KB object code size  0.5/0.3/[0.2]
Matrix Compiler2: off  [0.3]/0.4/0.3

