Circuit: * C:\Users\Matt\Dropbox\Documents\GitHub\12V-24V-Boost-Converter\LTSpice\Boost_test1.asc

Direct Newton iteration for .op point succeeded.

Date: Sat Mar 23 08:38:54 2019
Total elapsed time: 0.809 seconds.

tnom = 27
temp = 27
method = modified trap
totiter = 37551
traniter = 37505
tranpoints = 16109
accept = 13343
rejected = 2766
matrix size = 35
fillins = 7
solver = Normal
Matrix Compiler1: 3.64 KB object code size  0.9/0.8/[0.4]
Matrix Compiler2: 3.33 KB object code size  0.4/0.9/[0.4]

