Circuit: * C:\Users\Matt\Dropbox\Documents\GitHub\12V-24V-Boost-Converter\LTSpice\Boost_test1.asc

WARNING: Node NC_01 is floating.

WARNING: Less than two connections to node N005.  This node is used by V2.
WARNING: Less than two connections to node N008.  This node is used by R2.
Direct Newton iteration failed to find .op point.  (Use ".option noopiter" to skip.)
Starting Gmin stepping
Gmin = 10
Gmin = 1.07374
Gmin = 0.115292
Gmin = 0.0123794
Gmin = 0.00132923
Gmin = 0.000142725
Gmin = 1.5325e-005
Gmin = 1.6455e-006
Gmin = 1.76685e-007
Gmin = 1.89714e-008
Gmin = 2.03704e-009
Gmin = 2.18725e-010
Gmin = 2.34854e-011
Gmin = 2.52173e-012
Gmin = 2.70769e-013
Gmin = 0
Gmin stepping succeeded in finding the operating point.

Heightened Def Con from 0.000720001 to 0.000720001
Heightened Def Con from 0.000720001 to 0.000720001
Heightened Def Con from 0.000720001 to 0.000720001
Heightened Def Con from 0.000720001 to 0.000720001
Heightened Def Con from 0.000720001 to 0.000720001
Heightened Def Con from 0.00168 to 0.00168
Heightened Def Con from 0.00168 to 0.00168
Heightened Def Con from 0.002835 to 0.002835
Heightened Def Con from 0.003555 to 0.003555
Heightened Def Con from 0.006025 to 0.006025
Heightened Def Con from 0.007615 to 0.007615
Heightened Def Con from 0.0102 to 0.0102
Heightened Def Con from 0.0102 to 0.0102
Heightened Def Con from 0.01832 to 0.01832
Heightened Def Con from 0.033505 to 0.033505
Heightened Def Con from 0.057465 to 0.057465
Heightened Def Con from 0.0633797 to 0.0633797

Date: Wed Apr 03 20:50:43 2019
Total elapsed time: 109.931 seconds.

tnom = 27
temp = 27
method = modified trap
totiter = 6064451
traniter = 6064055
tranpoints = 1703020
accept = 1297170
rejected = 405867
matrix size = 40
fillins = 15
solver = Normal
Matrix Compiler1: 3.01 KB object code size  0.9/0.6/[0.5]
Matrix Compiler2: 3.40 KB object code size  0.5/0.8/[0.5]

